/*--------------------------------*- C++ -*----------------------------------*\
| =========                 |                                                 |
| \\      /  F ield         | OpenFOAM: The Open Source CFD Toolbox           |
|  \\    /   O peration     | Version:  4.x                                   |
|   \\  /    A nd           | Web:      www.OpenFOAM.org                      |
|    \\/     M anipulation  |                                                 |
\*---------------------------------------------------------------------------*/
/*   Windows 32 and 64 bit porting by blueCAPE: http://www.bluecape.com.pt   *\
|  Based on Windows porting (2.0.x v4) by Symscape: http://www.symscape.com   |
\*---------------------------------------------------------------------------*/
FoamFile
{
    version     2.0;
    format      ascii;
    class       featureEdgeMesh;
    location    "constant/triSurface";
    object      torre.eMesh;
}
// * * * * * * * * * * * * * * * * * * * * * * * * * * * * * * * * * * * * * //


// points:

1654
(
(22.25 -150 9.6148584e-016)
(7.257772 -150 0.3413595)
(21.41321 0.26963019 -3.9694531)
(21 4.8985869e-016 -4)
(21.477819 0.74482667 -3.900887)
(21 0.9756549 -3.8791881)
(21.486349 1.224231 -3.7768669)
(21.97068 0.99331182 -3.7511489)
(21.963039 1.478611 -3.5897429)
(22.449659 1.2713211 -3.5046)
(22.414351 1.73922 -3.3128099)
(22.88257 1.549594 -3.1709111)
(22.83872 1.975348 -2.952476)
(23.27853 1.7812459 -2.763231)
(23.23805 2.1472919 -2.5259161)
(23.64053 1.917758 -2.3129661)
(23.60891 2.224036 -2.0608859)
(23.965731 1.951434 -1.842914)
(23.946779 2.1915641 -1.585418)
(24.253901 1.871529 -1.381848)
(24.24897 2.0412259 -1.130295)
(24.51157 1.772325 -0.72643989)
(21 1.444967 -3.7298889)
(21.478531 1.689081 -3.5941639)
(21.94161 1.934039 -3.3723669)
(22.38615 2.1662099 -3.0636799)
(22.811939 2.355211 -2.6776559)
(23.216551 2.4683061 -2.2348089)
(23.59428 2.4819331 -1.763446)
(23.939091 2.384408 -1.294731)
(24.24535 2.1736829 -0.86186111)
(24.506519 1.8598 -0.49547401)
(21 1.892374 -3.524049)
(21.4687 2.1278551 -3.3544829)
(21.925541 2.3522019 -3.100085)
(22.36941 2.5476179 -2.763032)
(22.797939 2.685751 -2.3567221)
(23.20583 2.7396231 -1.9049309)
(23.58539 2.692188 -1.4380111)
(23.928341 2.538964 -0.98919898)
(24.2267 2.2888801 -0.59110779)
(21 2.311095 -3.2647879)
(21.46204 2.531357 -3.062475)
(21.91637 2.7269831 -2.7791779)
(22.36075 2.8799369 -2.4195681)
(22.79043 2.9650719 -2.000675)
(23.197411 2.9616129 -1.549268)
(23.5714 2.8606689 -1.097482)
(23.90225 2.6678181 -0.67801988)
(24.18177 2.403173 -0.3179673)
(21 2.694783 -2.9560361)
(21.45829 2.893007 -2.724057)
(21.911461 3.0538571 -2.4172721)
(22.35561 3.160717 -2.042592)
(22.783319 3.1930821 -1.6198781)
(23.183319 3.1377831 -1.177898)
(23.543119 2.995285 -0.74888837)
(23.85309 2.780163 -0.36132801)
(24.110809 2.5143709 -0.028324271)
(21 3.0376201 -2.602473)
(21.455959 3.207602 -2.345932)
(21.907961 3.3291321 -2.02299)
(22.35008 3.3885491 -1.641652)
(22.771191 3.371433 -1.2232471)
(23.156811 3.273077 -0.79695541)
(23.49474 3.1018679 -0.39333069)
(23.78393 2.872066 -0.03125722)
(24.011921 2.6172409 0.28000671)
(24.349251 2.075037 0.69046932)
(21 3.33441 -2.20946)
(21.453621 3.4704909 -1.9364721)
(21.90399 3.5499859 -1.60636)
(22.34141 3.563462 -1.225703)
(22.74996 3.502903 -0.81688827)
(23.11397 3.3712051 -0.4075461)
(23.429689 3.1774051 -0.026911329)
(23.691919 2.9426711 0.307033)
(23.896839 2.686759 0.62421721)
(24.09343 2.3848259 0.86215758)
(21 3.580653 -1.782953)
(21.450581 3.677613 -1.50736)
(21.899771 3.7151229 -1.178254)
(22.32888 3.6868119 -0.80093038)
(22.71841 3.5895 -0.40316391)
(23.05792 3.430002 -0.0072899931)
(23.34251 3.2231171 0.35238451)
(23.59087 2.9806759 0.63478392)
(24.03931 2.321254 1.172332)
(24.31352 1.870032 1.2343301)
(21 3.7726181 -1.329419)
(21.44755 3.825701 -1.078752)
(21.89933 3.8252649 -0.74735701)
(22.31496 3.759783 -0.3672989)
(22.6779 3.631052 0.009959084)
(22.988741 3.4448769 0.42157561)
(21 3.907393 -0.85573232)
(21.923241 3.8802619 -0.30198231)
(22.287689 3.7863109 0.075596027)
(22.628889 3.630785 0.40510759)
(22.829161 3.453717 0.85207182)
(23.2696 3.080909 1.164863)
(23.656441 2.658247 1.370062)
(23.98823 2.2012341 1.4916691)
(24.26914 1.7426831 1.508568)
(24.5058 1.30116 1.419989)
(21 3.9829371 -0.36907339)
(21 3.952662 0.61356658)
(21.444469 3.8881111 0.82767212)
(21 3.8473029 1.0946521)
(21.45755 3.738447 1.347092)
(21 3.6836219 1.5591429)
(21.459089 3.535301 1.81408)
(21 3.464102 2)
(21.45789 3.280478 2.2424991)
(21 3.1920691 2.4105389)
(21.45665 2.9769509 2.6323431)
(21 2.8716481 2.7845359)
(21.455851 2.6289821 2.980042)
(21 2.507695 3.116322)
(21.45541 2.2416699 3.281389)
(21 2.1057291 3.4008689)
(21.45517 1.820747 3.532378)
(21 1.671841 3.6338611)
(21.45505 1.372472 3.729511)
(21 1.212611 3.8117681)
(21.45499 0.90354681 3.8699591)
(21 0.73499811 3.9318919)
(21.45496 0.42101699 3.951678)
(21 0.2462436 3.992413)
(21.45495 -0.067843348 3.973465)
(21 -0.2462436 3.992413)
(21.454941 -0.55564767 3.935008)
(21 -0.73499811 3.9318919)
(21.454941 -1.035015 3.8368969)
(21 -1.212611 3.8117681)
(21.454929 -1.498685 3.6806221)
(21 -1.671841 3.6338611)
(21.454929 -1.939634 3.4685531)
(21 -2.1057291 3.4008689)
(21.454929 -2.3511779 3.2039039)
(21 -2.507695 3.116322)
(21.454929 -2.7270801 2.890687)
(21 -2.8716481 2.7845359)
(21.454929 -3.0616419 2.5336511)
(21 -3.1920691 2.4105389)
(21.454929 -3.349792 2.138207)
(21 -3.464102 2)
(21.454929 -3.587163 1.71035)
(21 -3.6836219 1.5591429)
(21.454929 -3.7701559 1.256566)
(21 -3.8473029 1.0946521)
(21.454929 -3.895998 0.78373432)
(21 -3.952662 0.61356658)
(21.454929 -3.96278 0.29902151)
(21 -3.9981029 0.1231802)
(21.454929 -3.9694901 -0.1902242)
(21 -3.9829371 -0.36907339)
(21.454929 -3.9160271 -0.67658621)
(21 -3.907393 -0.85573232)
(21.454929 -3.803201 -1.152692)
(21 -3.7726181 -1.329419)
(21.454929 -3.6327219 -1.611324)
(21 -3.580653 -1.782953)
(21.45492 -3.4071879 -2.045511)
(21 -3.33441 -2.20946)
(21.454821 -3.130132 -2.4485531)
(21 -3.0376201 -2.602473)
(21.45429 -2.8062129 -2.814034)
(21 -2.694783 -2.9560361)
(21.45244 -2.4414201 -3.1360421)
(21 -2.311095 -3.2647879)
(21.44759 -2.04284 -3.40976)
(21 -1.892374 -3.524049)
(21.43745 -1.617707 -3.6320331)
(21 -1.444967 -3.7298889)
(21.419991 -1.172096 -3.8012891)
(21 -0.9756549 -3.8791881)
(21.395149 -0.71014822 -3.916573)
(21 -0.49155319 -3.969682)
(21.36941 -0.2333321 -3.9760649)
(21.71006 0.025994429 -3.9363871)
(21.921619 0.4759908 -3.863167)
(22.44293 0.76812577 -3.6507449)
(22.94558 1.079856 -3.323946)
(23.343929 1.38462 -2.93067)
(23.69948 1.5689009 -2.500267)
(24.00902 1.664457 -2.0433741)
(24.277821 1.651336 -1.590286)
(24.50893 1.530139 -1.160221)
(21.646589 3.944113 -0.16093551)
(21.91254 3.8892381 0.2027515)
(21.87365 3.846585 0.66372031)
(21.9074 3.7180829 1.162962)
(22.36602 3.6196129 1.016062)
(22.37055 3.458703 1.469342)
(22.82383 3.3104849 1.30933)
(22.811251 3.1179559 1.731398)
(23.24345 2.921572 1.559284)
(23.223419 2.7074261 1.930351)
(23.62219 2.4819739 1.721611)
(23.60252 2.251354 2.0391941)
(23.957729 2.014931 1.786584)
(23.945271 1.776021 2.0423329)
(24.251209 1.548692 1.74103)
(22.31996 3.7333269 0.56567538)
(21.915279 3.534826 1.633177)
(22.366449 3.243901 1.8999799)
(22.80073 2.8748159 2.119621)
(23.21174 2.4440949 2.2659619)
(23.59404 1.976545 2.3160839)
(23.94346 1.5012 2.254421)
(24.25593 1.051463 2.0720389)
(24.524389 0.6617763 1.7722189)
(24.73745 0.35891229 1.379356)
(21.914301 3.2990229 2.068939)
(22.361589 2.978569 2.2965641)
(22.794371 2.5854571 2.4689369)
(23.206341 2.1398029 2.559943)
(23.591709 1.6686 2.549278)
(23.94511 1.203732 2.4243309)
(24.259541 0.78078902 2.1830621)
(24.5247 0.43322679 1.840872)
(24.72982 0.18087751 1.433786)
(24.877569 0.02547472 0.98173392)
(24.968929 -0.03331504 0.49643561)
(21.911961 3.0138581 2.4667759)
(22.358339 2.667695 2.6529839)
(22.79121 2.2561779 2.775105)
(23.204321 1.802543 2.809237)
(23.59152 1.3362859 2.7383139)
(23.946039 0.89127201 2.5546961)
(24.25882 0.50260049 2.26439)
(24.52013 0.1991412 1.889194)
(24.72637 -0.003070279 1.454019)
(24.87673 -0.099370971 0.98033333)
(24.96888 -0.094791777 0.48885629)
(21.91028 2.683717 2.822952)
(22.3566 2.316865 2.9650929)
(22.789829 1.893299 3.0351131)
(23.20364 1.439056 3.012156)
(23.5914 0.98575151 2.88322)
(23.945221 0.56769818 2.6463909)
(24.256069 0.21740671 2.313164)
(24.517269 -0.039355241 1.9045449)
(24.72509 -0.1865814 1.445312)
(24.876539 -0.22165459 0.96088111)
(24.968901 -0.1546479 0.47318721)
(21.909321 2.3136859 3.133687)
(22.355749 1.9317859 3.2295721)
(22.789249 1.5027781 3.2465739)
(23.20331 1.05512 3.1673541)
(23.590839 0.62176222 2.9834499)
(23.94371 0.23617139 2.697927)
(24.254129 -0.071574502 2.3249819)
(24.516069 -0.27708441 1.8869261)
(24.724779 -0.36615041 1.411373)
(24.87657 -0.3397477 0.92563993)
(24.968929 -0.2119408 0.45016801)
(21.908819 1.909305 3.3953791)
(22.35535 1.5182821 3.443522)
(22.78898 1.0904551 3.4074099)
(23.20303 0.65620971 3.273535)
(23.59016 0.2490416 3.0379391)
(23.942619 -0.098901697 2.707618)
(24.253269 -0.3593137 2.299372)
(24.51581 -0.50970727 1.8382781)
(24.724779 -0.53914863 1.354748)
(24.8766 -0.45212659 0.87610042)
(24.96895 -0.2659111 0.42039159)
(21.908569 1.476541 3.6047659)
(22.35516 1.082428 3.6044271)
(22.788851 0.66231447 3.515873)
(23.202801 0.24797709 3.329591)
(23.58968 -0.1271369 3.0458829)
(23.94212 -0.432262 2.6752701)
(24.25309 -0.6409263 2.2375431)
(24.515791 -0.73370552 1.76094)
(24.724701 -0.70331699 1.277472)
(24.876579 -0.55736488 0.81332362)
(24.96895 -0.31582621 0.38430431)
(21.90844 1.021778 3.759084)
(22.35507 0.6306203 3.7102721)
(22.788771 0.22459491 3.570693)
(23.20265 -0.16364101 3.334903)
(23.58943 -0.50113457 3.007273)
(23.941971 -0.7586301 2.6017859)
(24.253031 -0.9121387 2.141449)
(24.515551 -0.94608152 1.657061)
(24.724529 -0.8564961 1.180814)
(24.87656 -0.65394223 0.73800939)
(24.96895 -0.36088109 0.3423)
(21.908369 0.55176729 3.8562181)
(22.355021 0.16953529 3.7596779)
(22.788731 -0.2162486 3.571228)
(23.20256 -0.57254672 3.2895191)
(23.589331 -0.86728549 2.9228771)
(23.94187 -1.0730799 2.4887559)
(24.25272 -1.169222 2.0131409)
(24.5152 -1.143935 1.527989)
(24.724489 -0.99625832 1.065654)
(24.876631 -0.74023497 0.65100062)
(24.968969 -0.40030321 0.29495269)
(21.90834 0.073535658 3.8948059)
(22.355 -0.2939544 3.7520089)
(22.788719 -0.65365052 3.517561)
(23.202511 -0.97262841 3.1942041)
(23.589251 -1.220095 2.7941301)
(23.941641 -1.371084 2.3381341)
(24.25234 -1.408569 1.854239)
(24.51515 -1.324041 1.375006)
(24.724739 -1.120201 0.93350822)
(24.87676 -0.81490409 0.55377197)
(24.969 -0.43353409 0.243093)
(21.908319 -0.40573061 3.8743169)
(22.35499 -0.75289631 3.687433)
(22.78871 -1.081053 3.4105501)
(23.20249 -1.357879 3.0504439)
(23.589161 -1.5543129 2.623045)
(23.94138 -1.648324 2.152041)
(24.252251 -1.626371 1.666662)
(24.515499 -1.4832979 1.20044)
(24.72505 -1.226678 0.78693843)
(24.87682 -0.87711477 0.44822749)
(24.969 -0.4602392 0.1875805)
(21.908319 -0.87880361 3.795084)
(22.35498 -1.200376 3.5669489)
(22.7887 -1.492018 3.2518339)
(23.20248 -1.722496 2.860436)
(23.589069 -1.864946 2.4122009)
(23.94128 -1.900543 1.933087)
(24.25248 -1.81905 1.453424)
(24.515881 -1.61961 1.007706)
(24.72506 -1.314726 0.62881643)
(24.876829 -0.92597193 0.33585921)
(24.969009 -0.47991729 0.12913901)
(21.90831 -1.338533 3.658319)
(22.35498 -1.629635 3.3923919)
(22.7887 -1.880342 3.043824)
(23.202471 -2.060976 2.627068)
(23.588989 -2.1473041 2.1647639)
(23.941299 -2.1238019 1.684693)
(24.252689 -1.983855 1.2183419)
(24.51577 -1.7317441 0.8002643)
(24.724979 -1.382751 0.46100989)
(24.876909 -0.9602294 0.21801241)
(24.96903 -0.49206141 0.068615332)
(21.90831 -1.7779599 3.4660971)
(22.35498 -2.0341771 3.1664109)
(22.7887 -2.240149 2.789675)
(23.202471 -2.3682001 2.353878)
(23.588949 -2.3970931 1.884481)
(23.94132 -2.3147669 1.410854)
(24.252529 -2.1188109 0.96523261)
(24.515539 -1.817701 0.58045739)
(24.72521 -1.428718 0.28565839)
(24.87709 -0.9791972 0.096566178)
(24.969049 -0.49654531 0.0070466362)
(21.90831 -2.1904311 3.2213321)
(22.35498 -2.4078779 2.892431)
(22.7887 -2.5659921 2.4932389)
(23.202471 -2.639518 2.0450089)
(23.58893 -2.610527 1.575618)
(23.941219 -2.470685 1.11577)
(24.25223 -2.2218571 0.69736987)
(24.515711 -1.875205 0.35131699)
(24.725651 -1.452013 0.1058621)
(24.877171 -0.98329788 -0.026237041)
(24.969049 -0.49359879 -0.05454199)
(21.90831 -2.569694 2.927737)
(22.35498 -2.745075 2.5746069)
(22.7887 -2.8529339 2.159009)
(23.202471 -2.870821 1.7051409)
(23.588921 -2.7843759 1.242867)
(23.94104 -2.5892479 0.80378813)
(24.252171 -2.2908931 0.41857919)
(24.5161 -1.903501 0.1170191)
(24.725679 -1.453836 -0.075250663)
(24.877001 -0.9730615 -0.1484299)
(24.96903 -0.48321009 -0.1154074)
(21.90831 -2.910002 2.5897601)
(22.35498 -3.040659 2.2177539)
(22.7887 -3.096628 1.792052)
(23.202471 -3.058605 1.339425)
(23.588921 -2.9160099 0.89127541)
(23.94088 -2.6685741 0.47953039)
(24.25223 -2.324903 0.13352451)
(24.51606 -1.903493 -0.1185621)
(24.725109 -1.4347349 -0.2550801)
(24.877001 -0.94697452 -0.26846871)
(24.969061 -0.464843 -0.1745528)
(21.90831 -3.206197 2.2125261)
(22.35498 -3.290148 1.827283)
(22.7887 -3.29338 1.397929)
(23.202471 -3.200022 0.95340562)
(23.588921 -3.003438 0.52617413)
(23.94079 -2.707371 0.14793409)
(24.25211 -2.323859 -0.15326969)
(24.51532 -1.875733 -0.3523939)
(24.7251 -1.391981 -0.4313069)
(24.87739 -0.9045682 -0.38417411)
(24.96912 -0.4390353 -0.23092049)
(21.90831 -3.4537899 1.801752)
(22.35498 -3.4897621 1.409112)
(22.7887 -3.440207 0.98261583)
(23.202471 -3.2929299 0.55293381)
(23.588921 -3.0453341 0.1530975)
(23.94075 -2.70507 -0.1859206)
(24.25173 -2.287936 -0.4377569)
(24.515051 -1.818362 -0.58134443)
(24.725901 -1.325685 -0.60019368)
(24.87767 -0.84830803 -0.49399489)
(24.96912 -0.40685681 -0.2838037)
(21.90831 -3.6490259 1.363665)
(22.35498 -3.6364751 0.96958071)
(22.7887 -3.534884 0.55240691)
(23.202471 -3.3359201 0.1440803)
(23.588921 -3.0410659 -0.2222994)
(23.940741 -2.6617341 -0.51695257)
(24.726391 -1.239818 -0.75952429)
(24.877399 -0.78070569 -0.59691203)
(24.96913 -0.36793879 -0.33257249)
(21.90831 -3.7889459 0.90490627)
(22.35498 -3.7280631 0.51535147)
(22.7887 -3.5759749 0.1138241)
(23.202471 -3.328341 -0.26695731)
(23.588921 -2.9906991 -0.5943262)
(23.940729 -2.5780361 -0.84014118)
(24.72562 -1.137502 -0.90875357)
(24.877939 -0.69755077 -0.6892302)
(24.969179 -0.32260031 -0.3762596)
(21.90831 -3.8714311 0.43243039)
(22.35498 -3.7631359 0.053310171)
(22.7887 -3.5628591 -0.3264842)
(23.202471 -3.270308 -0.67394811)
(23.588921 -2.894995 -0.95734352)
(23.940729 -2.4552419 -1.150597)
(24.725901 -1.014343 -1.043438)
(21.90831 -3.8952279 -0.04660067)
(22.35498 -3.7411649 -0.40953931)
(22.7887 -3.495733 -0.76184332)
(23.202471 -3.1627009 -1.070722)
(23.588921 -2.755399 -1.305853)
(23.94076 -2.2951701 -1.443646)
(24.251101 -1.8088289 -1.469188)
(24.51404 -1.325938 -1.3760051)
(24.726 -0.87534553 -1.162182)
(24.88014 -0.49277741 -0.83764929)
(21.90831 -3.859977 -0.52492529)
(22.35498 -3.6624811 -0.8661806)
(22.7887 -3.3756161 -1.185654)
(23.202471 -3.007148 -1.451267)
(23.58893 -2.5740139 -1.634589)
(23.940701 -2.1002729 -1.714967)
(24.250561 -1.6145329 -1.681419)
(24.51189 -1.147567 -1.53289)
(24.72188 -0.7280032 -1.271858)
(21.90831 -3.7662129 -0.99529272)
(22.35498 -3.5282781 -1.309691)
(22.7887 -3.20433 -1.591486)
(23.202459 -2.8060269 -1.809805)
(23.58876 -2.3537209 -1.938643)
(23.939739 -1.874087 -1.961051)
(24.2474 -1.397447 -1.871235)
(24.50495 -0.95477599 -1.674438)
(21.90831 -3.6153581 -1.450572)
(22.354971 -3.340596 -1.733339)
(22.78866 -2.984519 -1.973153)
(23.202181 -2.562602 -2.140907)
(23.587379 -2.098599 -2.213903)
(23.93516 -1.621865 -2.1804571)
(24.23665 -1.163905 -2.041919)
(24.48609 -0.7541104 -1.810654)
(21.9083 -3.4097071 -1.883847)
(22.354919 -3.1023569 -2.1306269)
(22.788309 -2.7198131 -2.3247709)
(23.20051 -2.2814159 -2.439853)
(23.58173 -1.8144031 -2.458169)
(23.92112 -1.350338 -2.3756349)
(24.2099 -0.92006958 -2.2022729)
(24.44508 -0.54858547 -1.957166)
(21.90822 -3.152488 -2.2884381)
(22.35449 -2.8175759 -2.4953179)
(22.786461 -2.415242 -2.6410539)
(23.19426 -1.968703 -2.703599)
(23.565599 -1.508168 -2.6726661)
(23.88867 -1.065477 -2.5535009)
(24.156981 -0.66760391 -2.3638489)
(21.907709 -2.8480971 -2.657896)
(22.35248 -2.4917891 -2.821665)
(22.779881 -2.0775809 -2.9181621)
(23.177071 -1.6319489 -2.932085)
(23.529791 -1.18619 -2.862366)
(23.827761 -0.76912051 -2.722542)
(24.06925 -0.40090391 -2.5335741)
(21.905569 -2.502486 -2.9862199)
(22.345779 -2.132273 -3.1052041)
(22.76244 -1.714794 -3.154882)
(23.13991 -1.277983 -3.1285031)
(23.46452 -0.85120422 -3.033411)
(23.730721 -0.45728591 -2.8868771)
(23.95046 -0.1073278 -2.6987531)
(24.11706 0.19495881 -2.4991839)
(24.234909 0.4583444 -2.3076601)
(24.43 0.8276242 -1.884182)
(21.899151 -2.123148 -3.268605)
(22.32889 -1.7472301 -3.3438339)
(22.725809 -1.334095 -3.3528731)
(23.073721 -0.91038227 -3.297106)
(23.363159 -0.50104243 -3.18817)
(23.60334 -0.1205062 -3.034482)
(23.791519 0.2204043 -2.8563671)
(23.939131 0.51554811 -2.66378)
(24.04826 0.80530131 -2.4616311)
(24.177469 1.026269 -2.202379)
(21.884211 -1.718082 -3.5023379)
(22.29495 -1.343732 -3.538008)
(22.66234 -0.93960297 -3.5147951)
(22.97304 -0.52817941 -3.4392049)
(23.232889 -0.1315528 -3.3161571)
(23.436001 0.2478106 -3.1629901)
(23.598221 0.5814442 -2.985157)
(23.7616 0.84111398 -2.7687719)
(23.796249 1.186015 -2.6027551)
(24.08416 1.344221 -2.1635749)
(21.856119 -1.29399 -3.686821)
(22.23844 -0.92549193 -3.6891379)
(22.568529 -0.531712 -3.641017)
(22.844139 -0.1319326 -3.5470729)
(23.066839 0.25726411 -3.4149671)
(23.23147 0.65827709 -3.253799)
(23.429939 0.99706602 -3.016824)
(21.812469 -0.85526901 -3.8220949)
(22.158239 -0.49136949 -3.7969761)
(22.451 -0.1197141 -3.7256219)
(22.673189 0.2846745 -3.622072)
(22.86517 0.63797998 -3.4805341)
(21.75709 -0.4062385 -3.9066341)
(22.06036 -0.042903349 -3.856657)
(22.30801 0.29307321 -3.7687171)
(18.2314 -2.7337289 2.9200549)
(22.218929 -150 -0.68201149)
(21.66634 -135.892 -0.5245589)
(21.58629 -135.8214 -1.168833)
(22.125959 -150 -1.358372)
(21.450319 -135.80949 -1.8031811)
(20.91955 -121.5571 -1.600477)
(20.747049 -121.5817 -2.1918261)
(20.225309 -107.2488 -1.9756581)
(20.022711 -107.3786 -2.525074)
(19.515261 -93.055939 -2.29302)
(19.28644 -93.310043 -2.801928)
(18.799629 -79.112228 -2.5534861)
(18.550301 -79.555771 -3.0228679)
(18.09285 -65.708611 -2.763005)
(17.82584 -66.268593 -3.18873)
(17.398991 -52.795792 -2.9195809)
(17.12924 -53.683632 -3.3014181)
(16.75102 -41.082699 -3.032172)
(16.462049 -41.397141 -3.34813)
(16.12583 -29.329029 -3.0704291)
(15.82842 -28.51589 -3.2971001)
(15.52332 -15.72678 -2.964684)
(15.25189 -15.37984 -3.1644421)
(15.01872 -2.861042 -2.7954309)
(14.74565 -2.6627231 -2.984947)
(15.27034 -3.053196 -2.584182)
(15.80659 -17.877411 -2.8057101)
(16.34251 -28.65707 -2.8065181)
(16.95089 -38.969509 -2.655607)
(17.64403 -52.14201 -2.507302)
(18.318291 -65.008453 -2.299109)
(19.011539 -78.816071 -2.056402)
(19.6998 -92.88652 -1.762132)
(20.38312 -107.2855 -1.410247)
(21.042101 -121.6507 -0.99586451)
(21.97188 -150 -2.0234759)
(21.258471 -135.8316 -2.4228959)
(20.523359 -121.6614 -2.7655449)
(19.77203 -107.5412 -3.0530491)
(19.0133 -93.581169 -3.2848539)
(18.258261 -79.921356 -3.4603169)
(17.52005 -66.724892 -3.5796559)
(16.80805 -53.916382 -3.6375229)
(16.13261 -41.093941 -3.6174951)
(15.51531 -28.14258 -3.5148311)
(14.95279 -15.1677 -3.3530099)
(14.45403 -2.4654059 -3.1498849)
(21.75795 -150 -2.671813)
(21.011351 -135.8647 -3.0228851)
(20.248329 -121.7441 -3.316452)
(19.473761 -107.6884 -3.5547609)
(18.69582 -93.793053 -3.737433)
(17.925449 -80.181053 -3.8634989)
(17.174 -66.911118 -3.930629)
(16.45373 -53.858761 -3.930968)
(15.78367 -40.860771 -3.8561881)
(15.17974 -27.90567 -3.7119839)
(14.63057 -14.99241 -3.5190561)
(14.14633 -2.2775071 -3.288307)
(21.48596 -150 -3.2980101)
(20.71043 -135.8942 -3.5979149)
(19.923651 -121.8105 -3.8395629)
(19.12985 -107.7958 -4.0256581)
(18.33683 -93.935127 -4.1560311)
(17.55497 -80.314034 -4.2290959)
(16.796089 -66.949577 -4.2415209)
(16.075939 -53.76189 -4.1872921)
(15.41376 -40.673698 -4.0642729)
(14.82078 -27.705521 -3.882381)
(14.28633 -14.83617 -3.6584599)
(13.82447 -2.1090269 -3.398824)
(21.15815 -150 -3.8968799)
(20.358141 -135.9157 -4.1430058)
(19.552031 -121.8558 -4.3302808)
(18.74354 -107.8648 -4.4617572)
(17.940149 -94.014832 -4.5373821)
(17.15217 -80.369019 -4.5555072)
(16.392019 -66.932198 -4.513258)
(15.67603 -53.64616 -4.4071612)
(15.02126 -40.47987 -4.2394919)
(14.43623 -27.496889 -4.0223188)
(13.91586 -14.69253 -3.768991)
(13.48902 -1.971596 -3.480346)
(20.777229 -150 -4.4634581)
(19.9575 -135.9296 -4.6535439)
(19.136881 -121.884 -4.7844949)
(18.318689 -107.9051 -4.8595858)
(17.51026 -94.056137 -4.8790088)
(16.72168 -80.384644 -4.8415661)
(15.96505 -66.884308 -4.7453861)
(15.2553 -53.511639 -4.5896101)
(14.60597 -40.278641 -4.3798189)
(14.02231 -27.271509 -4.1284189)
(13.50416 -14.52069 -3.84659)
(13.13941 -1.878711 -3.531352)
(20.34638 -150 -4.9930511)
(19.511971 -135.9382 -5.1253018)
(18.682011 -121.9014 -5.198525)
(17.859579 -107.9308 -5.2161541)
(17.05187 -94.082939 -5.1787791)
(16.26849 -80.394112 -5.085988)
(15.52041 -66.855911 -4.9373698)
(14.81964 -53.456631 -4.7349262)
(14.17416 -40.234901 -4.4859438)
(13.57939 -27.12776 -4.197432)
(13.00125 -13.71023 -3.865)
(12.95896 -1.853514 -3.544642)
(19.86915 -150 -5.4812698)
(19.0254 -135.9442 -5.5544152)
(18.19169 -121.9166 -5.5690708)
(17.37117 -107.9612 -5.5288391)
(16.571051 -94.134827 -5.4350071)
(15.80049 -80.47905 -5.2885032)
(15.06902 -67.018707 -5.0913892)
(14.38541 -53.839199 -4.8496742)
(13.75709 -41.16153 -4.5747452)
(13.18672 -29.16798 -4.2775459)
(12.73717 -18.37174 -3.9815769)
(12.4098 -1.878876 -3.5312641)
(12.37234 -16.42775 -3.8926051)
(12.23327 -1.919179 -3.5095229)
(12.06053 -1.972645 -3.4797521)
(19.349501 -150 -5.9240689)
(18.5021 -135.9523 -5.9373679)
(17.671 -121.9451 -5.8932419)
(16.859831 -108.0352 -5.7957659)
(16.07633 -94.29882 -5.6475668)
(15.32942 -80.809319 -5.4518051)
(14.62583 -67.654747 -5.213975)
(13.96724 -55.059681 -4.9447131)
(13.34448 -43.159431 -4.6508789)
(12.77214 -32.484421 -4.3468652)
(18.79174 -150 -6.31778)
(17.94706 -135.97169 -6.2710819)
(17.125891 -122.0166 -6.168993)
(16.333151 -108.226 -6.0167408)
(15.57791 -94.722 -5.8191619)
(14.86921 -81.632294 -5.5824938)
(14.21002 -69.132294 -5.316349)
(13.57949 -57.468269 -5.0320902)
(13.01959 -48.426979 -4.7766018)
(12.53896 -43.09486 -4.5823359)
(12.28231 -28.885811 -4.1842599)
(12.10313 -40.016682 -4.4119258)
(11.86523 -27.15601 -4.0359521)
(11.69438 -38.797779 -4.2530661)
(11.49155 -26.47072 -3.884958)
(11.32365 -38.754139 -4.0959229)
(11.15838 -25.608721 -3.7094331)
(11.00164 -36.127651 -3.866369)
(10.84974 -25.19425 -3.5219009)
(10.68205 -37.756691 -3.7013121)
(10.60126 -23.990459 -3.323164)
(10.38385 -27.370029 -3.23001)
(10.44104 -14.05072 -2.9633911)
(10.20947 -15.477 -2.7863951)
(10.296 -3.0652151 -2.5699141)
(10.06838 -3.2498009 -2.3321221)
(10.54305 -2.8721311 -2.7840371)
(10.70154 -13.40416 -3.149528)
(18.200491 -150 -6.6591392)
(17.36545 -136.0159 -6.553225)
(16.561951 -122.1725 -6.3956442)
(15.7972 -108.6199 -6.1934652)
(15.08254 -95.538879 -5.9543171)
(14.42858 -83.118111 -5.6879601)
(13.82359 -71.261917 -5.3989072)
(13.25909 -62.373878 -5.1532178)
(12.76469 -57.471611 -4.9761362)
(12.30647 -54.19289 -4.8056908)
(11.91535 -50.271511 -4.600687)
(11.54113 -51.785351 -4.496233)
(11.0682 -50.167439 -4.2282991)
(17.580641 -150 -6.9453192)
(16.761221 -136.0937 -6.7823148)
(15.98139 -122.4346 -6.5732498)
(15.25124 -109.219 -6.326787)
(14.58404 -96.649872 -6.0528102)
(13.98606 -84.613312 -5.7553439)
(13.5023 -74.537308 -5.4823442)
(13.03872 -71.18483 -5.3577132)
(12.53574 -68.116249 -5.1965861)
(11.98367 -64.56662 -4.9617639)
(16.93734 -150 -7.1739478)
(16.135441 -136.1965 -6.9570699)
(15.38104 -122.7558 -6.7001119)
(14.68416 -109.776 -6.4101171)
(14.04539 -96.890503 -6.083746)
(13.48141 -84.590378 -5.7420731)
(16.275921 -150 -7.3431311)
(15.48593 -136.3161 -7.0757442)
(14.75773 -123.0677 -6.7718778)
(14.0929 -109.6915 -6.4239912)
(13.47823 -96.224007 -6.0405531)
(12.94428 -82.344711 -5.6237202)
(15.60185 -150 -7.4514661)
(14.80489 -136.5262 -7.1368451)
(14.1235 -123.2475 -6.7812338)
(13.48796 -108.8795 -6.3635492)
(12.9031 -94.606857 -5.9199939)
(12.39822 -79.891663 -5.4492221)
(14.92072 -150 -7.4980569)
(14.08018 -137.5219 -7.1495481)
(13.48215 -121.9389 -6.6922932)
(12.88788 -107.6873 -6.23806)
(12.34558 -93.260963 -5.755703)
(11.8736 -78.559486 -5.2537498)
(11.45302 -64.638069 -4.7567158)
(14.23818 -150 -7.4825158)
(13.55988 -150 -7.4049721)
(13.39736 -133.90359 -6.978581)
(12.87407 -135.599 -6.9138651)
(12.85913 -120.9573 -6.5552888)
(12.29633 -121.3808 -6.4102468)
(12.31537 -107.0724 -6.0762959)
(11.77543 -107.1497 -5.885581)
(11.81552 -92.775978 -5.5653939)
(11.3109 -92.977798 -5.3457761)
(11.37337 -78.641052 -5.0444031)
(10.9054 -79.06192 -4.801085)
(10.98534 -64.76001 -4.5181608)
(10.55674 -65.831291 -4.2648759)
(10.64351 -52.024738 -4.0056329)
(10.2621 -53.498711 -3.7448549)
(10.34676 -40.565239 -3.5106349)
(10.03171 -41.630981 -3.246325)
(10.1344 -29.2397 -3.0468409)
(9.8854036 -29.638491 -2.789453)
(10.01863 -18.24168 -2.6539719)
(9.8409834 -16.040701 -2.3821781)
(9.8554792 -3.4273551 -2.0623369)
(12.89144 -150 -7.2660689)
(12.27632 -135.795 -6.7448902)
(11.73475 -121.5605 -6.2048821)
(11.25295 -107.3678 -5.649137)
(10.8298 -93.333748 -5.0844789)
(10.46601 -79.69532 -4.5214229)
(10.16086 -66.659264 -3.9694879)
(9.9175034 -54.142841 -3.4362011)
(9.7472973 -41.737751 -2.9346001)
(9.6632376 -28.81646 -2.484323)
(9.6440592 -15.86564 -2.0940139)
(9.6639462 -3.5905571 -1.762923)
(12.2384 -150 -7.066957)
(11.68046 -135.855 -6.514174)
(11.1865 -121.6895 -5.9451642)
(10.75124 -107.5887 -5.364439)
(10.37441 -93.694382 -4.7794042)
(10.05698 -80.167549 -4.1991358)
(9.8006992 -67.078163 -3.632772)
(9.61129 -54.279549 -3.0917449)
(9.4977741 -41.428699 -2.593997)
(9.4561119 -28.55349 -2.1580231)
(9.4618721 -15.86924 -1.772939)
(9.4998131 -3.732698 -1.437694)
(11.60618 -150 -6.8092861)
(11.10276 -135.8933 -6.2276092)
(10.66042 -121.7901 -5.6340251)
(10.27585 -107.7693 -5.0328331)
(9.9492912 -93.948067 -4.4310012)
(9.6825438 -80.430542 -3.837378)
(9.4786634 -67.23333 -3.2625561)
(9.343318 -54.211411 -2.721499)
(9.2784338 -41.258789 -2.2334321)
(9.272934 -28.463261 -1.807228)
(9.3063116 -15.90732 -1.4263721)
(9.3678703 -3.8483281 -1.091041)
(11 -150 -6.4951911)
(10.55151 -135.922 -5.888413)
(10.16323 -121.863 -5.2745142)
(9.8322372 -107.8886 -4.6571832)
(9.5590534 -94.093086 -4.0431681)
(9.3457794 -80.553009 -3.4418001)
(9.1956491 -67.262039 -2.865273)
(9.1118269 -54.140999 -2.3303871)
(9.0909653 -41.171509 -1.852991)
(9.1201887 -28.436119 -1.435734)
(9.1834259 -15.94767 -1.060815)
(9.271863 -3.933167 -0.72814828)
(10.4249 -150 -6.127274)
(10.03268 -135.9422 -5.4997802)
(9.7003622 -121.9088 -4.8701348)
(9.4250593 -107.9563 -4.2415118)
(9.2071915 -94.165688 -3.620631)
(9.0486975 -80.597649 -3.0173941)
(8.951973 -67.248322 -2.4451921)
(8.9172525 -54.085949 -1.920498)
(8.9381151 -41.13121 -1.455556)
(9.0020294 -28.45015 -1.049579)
(9.096776 -15.99123 -0.68375009)
(9.2144833 -3.9841361 -0.3558988)
(9.8856344 -150 -5.7085848)
(9.551156 -135.9547 -5.0652051)
(9.2762699 -121.9346 -4.4247961)
(9.057972 -107.9911 -3.7901011)
(8.8963623 -94.19651 -3.1678219)
(8.7928648 -80.603439 -2.568368)
(8.7484684 -67.221413 -2.0056641)
(8.7608681 -54.055012 -1.495079)
(8.8219814 -41.153099 -1.046496)
(8.9204044 -28.54217 -0.65707451)
(9.0475807 -16.073681 -0.30550441)
(9.1967134 -3.999959 0.018109551)
(9.3866787 -150 -5.2425928)
(9.1111603 -135.9619 -4.5884919)
(8.8946428 -121.9483 -3.9425709)
(8.7339478 -108.0072 -3.3071611)
(8.6287622 -94.204842 -2.6889241)
(8.5797129 -80.593613 -2.0986669)
(8.5861673 -67.203362 -1.5504349)
(8.6436605 -54.084942 -1.059008)
(8.7429895 -41.308041 -0.63312352)
(8.8739548 -28.84215 -0.2695379)
(9.0325918 -16.336189 0.05669345)
(9.2183208 -3.98072 0.39225641)
(8.9321651 -150 -4.73316)
(8.7163992 -135.966 -4.073709)
(8.5586271 -121.9554 -3.4276481)
(8.4555149 -108.0136 -2.796895)
(8.4062672 -94.203613 -2.1880929)
(8.4105082 -80.58551 -1.6123199)
(8.4658537 -67.222961 -1.083819)
(8.5656538 -54.225922 -0.61725038)
(8.6992044 -41.71109 -0.2221303)
(8.8543253 -29.760651 0.09865582)
(9.0158787 -18.67911 0.3452343)
(9.0881157 -16.29003 0.65743071)
(9.2795267 -3.926374 0.7639311)
(9.169076 -15.99806 1.010995)
(9.3791656 -3.8383851 1.125524)
(9.2849207 -15.89327 1.369715)
(9.5144119 -3.7199759 1.4702981)
(9.4353867 -15.82175 1.71807)
(9.6814384 -3.5755279 1.793209)
(9.6174622 -15.75665 2.0480809)
(9.8753281 -3.4106209 2.089896)
(9.8272104 -15.69742 2.3548729)
(10.08995 -3.232064 2.356642)
(10.061 -15.63395 2.6357009)
(10.31894 -3.0469401 2.5915551)
(10.31788 -15.49203 2.8896179)
(10.56827 -2.8528991 2.8037419)
(10.59702 -15.31097 3.117486)
(10.83945 -2.652631 2.9939189)
(10.89672 -15.12879 3.3187029)
(11.12961 -2.453661 3.1590419)
(11.2142 -14.95474 3.4913721)
(11.43636 -2.2648389 3.297045)
(11.54512 -14.81172 3.6337609)
(11.75791 -2.0966599 3.406467)
(11.88069 -14.78244 3.745337)
(12.0938 -1.961314 3.486151)
(12.19731 -15.67174 3.843168)
(12.26726 -1.910261 3.514385)
(12.51898 -14.65824 3.867444)
(12.44455 -1.872728 3.534528)
(12.84565 -15.51006 3.9120231)
(12.62573 -1.850493 3.5462201)
(12.81073 -1.845118 3.5490191)
(8.5258598 -150 -4.184505)
(8.3701353 -135.9682 -3.525172)
(8.2709436 -121.9589 -2.8843629)
(8.2248287 -108.0154 -2.2636089)
(8.2304411 -94.201927 -1.669548)
(8.2862558 -80.59037 -1.113328)
(8.3880777 -67.280418 -0.6090489)
(8.527607 -54.399288 -0.1703122)
(8.6942358 -41.986511 0.19355591)
(8.8792496 -29.798611 0.4769319)
(8.1711302 -150 -3.601177)
(8.0752172 -135.9695 -2.9474411)
(8.0339203 -121.9607 -2.3172309)
(8.0436802 -108.0164 -1.711737)
(8.1025314 -94.204582 -1.137516)
(8.2077599 -80.6082 -0.60544938)
(8.3537207 -67.338242 -0.128692)