/*--------------------------------*- C++ -*----------------------------------*\
| =========                 |                                                 |
| \\      /  F ield         | foam-extend: Open Source CFD                    |
|  \\    /   O peration     | Version:     3.2                                |
|   \\  /    A nd           | Web:         http://www.foam-extend.org         |
|    \\/     M anipulation  |                                                 |
\*---------------------------------------------------------------------------*/
FoamFile
{
    version     2.0;
    format      ascii;
    class       dictionary;
    object      blockMeshDict;
}
// * * * * * * * * * * * * * * * * * * * * * * * * * * * * * * * * * * * * * //


convertToMeters 1;

vertices
(
    (-314.5 0 -471.75 )
    (0 -314.5 -471.75 )
    (314.5 0  -471.75 )
    (0 314.5  -471.75 )
    (-94.35 0 -471.75 )
    (0 -94.35 -471.75 )
    (94.35 0  -471.75 )
    (0 94.35  -471.75 )
    
    (-314.5 0 -30)
    (0 -314.5 -30)
    (314.5 0  -30)
    (0 314.5  -30)
    (-94.35 0 -30)
    (0 -94.35 -30)
    (94.35 0  -30)
    (0 94.35  -30) 

    (-314.5 0 3.5)
    (0 -314.5 3.5)
    (314.5 0  3.5)
    (0 314.5  3.5)
    (-94.35 0 3.5)
    (0 -94.35 3.5)
    (94.35 0  3.5)
    (0 94.35  3.5)

    (-314.5 0 1572.5)
    (0 -314.5 1572.5)
    (314.5 0  1572.5)
    (0 314.5  1572.5)
    (-94.35 0 1572.5)
    (0 -94.35 1572.5)
    (94.35 0  1572.5)
    (0 94.35  1572.5)   
);

blocks
(
    // seccion frontal    
    hex (0 1 5 4 8 9 13 12)   (15 15 15) simpleGrading (1 1 0.1)
    hex (1 2 6 5 9 10 14 13)  (15 15 15) simpleGrading (1 1 0.1)
    hex (2 3 7 6 10 11 15 14) (15 15 15) simpleGrading (1 1 0.1)
    hex (3 0 4 7 11 8 12 15)  (15 15 15) simpleGrading (1 1 0.1)
    hex (4 5 6 7 12 13 14 15) (15 15 15) simpleGrading (1 1 0.1) 
    // seccion media
    hex (8 9 13 12 16 17 21 20)   (15 15 15) simpleGrading (1 1 1)
    hex (9 10 14 13 17 18 22 21)  (15 15 15) simpleGrading (1 1 1)
    hex (10 11 15 14 18 19 23 22) (15 15 15) simpleGrading (1 1 1)
    hex (11 8 12 15 19 16 20 23)  (15 15 15) simpleGrading (1 1 1)
    // seccion trasera
    hex (16 17 21 20 24 25 29 28) (15 15 30) simpleGrading (1 1 10)
    hex (17 18 22 21 25 26 30 29) (15 15 30) simpleGrading (1 1 10)
    hex (18 19 23 22 26 27 31 30) (15 15 30) simpleGrading (1 1 10)
    hex (19 16 20 23 27 24 28 31) (15 15 30) simpleGrading (1 1 10)
    hex (20 21 22 23 28 29 30 31) (15 15 30) simpleGrading (1 1 10)
);

edges
(
    arc 0 1 (-222.385082683169 -222.385082683169 -471.75)
    arc 1 2 (222.385082683169 -222.385082683169 -471.75)  
    arc 2 3 (222.385082683169 222.385082683169 -471.75)
    arc 3 0 (-222.385082683169 222.385082683169 -471.75)
    
    arc 8 9 (-222.385082683169 -222.385082683169 -30)  
    arc 9 10 (222.385082683169 -222.385082683169 -30)
    arc 10 11 (222.385082683169 222.385082683169 -30)
    arc 11 8 (-222.385082683169 222.385082683169 -30) 
    
    arc 16 17 (-222.385082683169 -222.385082683169 3.5)
    arc 17 18 (222.385082683169 -222.385082683169 3.5)
    arc 18 19 (222.385082683169 222.385082683169 3.5)
    arc 19 16 (-222.385082683169 222.385082683169 3.5)

    arc 24 25 (-222.385082683169 -222.385082683169 1572.5)
    arc 25 26 (222.385082683169 -222.385082683169 1572.5)
    arc 26 27 (222.385082683169 222.385082683169 1572.5)
    arc 27 24 (-222.385082683169 222.385082683169 1572.5)
    
    // interior
    arc 12 13 (-66.7155248049507 -66.7155248049507 -30)
    arc 13 14 (66.7155248049507 -66.7155248049507 -30)
    arc 14 15 (66.7155248049507 66.7155248049507 -30)
    arc 15 12 (-66.7155248049507 66.7155248049507 -30)

    arc 20 21 (-66.7155248049507 -66.7155248049507 3.5)
    arc 21 22 (66.7155248049507 -66.7155248049507 3.5)
    arc 22 23 (66.7155248049507 66.7155248049507 3.5)
    arc 23 20 (-66.7155248049507 66.7155248049507 3.5)
);

boundary
(
    AMI1
    {
        type patch;
        faces
        (

            (12 15 23 20)  
            (15 14 22 23)
            (14 13 21 22)
            (13 12 20 21)
	        (12 13 14 15)
	        (20 21 22 23)
         );            
     }
     
    entrada_ext_dominio
    {
        type patch;
        faces
        (
            (0 1 5 4)
            (2 1 5 6)
            (3 2 6 7)
            (0 3 7 4)
            (4 5 6 7)
         );  
     }

    salida_ext_dominio
    {
        type patch;
        faces
        (
            (25 26 30 29)
            (26 27 31 30)
            (27 24 28 31)
            (24 25 29 28)
            (29 30 31 28)
         );  
     }


     cilindro_ext_dominio
     {
        type wall;
        faces
        (
                        
            (1 9 10 2)
            (2 10 11 3)
            (3 11 8 0)
            (0 8 9 1)
            (9 17 18 10)
            (10 18 19 11)
            (11 19 16 8)
            (8 16 17 9)
            (17 25 26 18)	      
            (18 26 27 19)
            (19 27 24 16)
            (16 24 25 17)     
        );
    }
);

mergePatchPairs
(
);

// ************************************************************************* //
