/*--------------------------------*- C++ -*----------------------------------*\
| =========                 |                                                 |
| \\      /  F ield         | OpenFOAM: The Open Source CFD Toolbox           |
|  \\    /   O peration     | Version:  3.0.x                                 |
|   \\  /    A nd           | Web:      www.OpenFOAM.org                      |
|    \\/     M anipulation  |                                                 |
\*---------------------------------------------------------------------------*/
FoamFile
{
    version     2.0;
    format      ascii;
    class       volVectorField;
    object      U;
}
// * * * * * * * * * * * * * * * * * * * * * * * * * * * * * * * * * * * * * //

dimensions      [0 1 -1 0 0 0 0];

internalField  uniform (0 0 0);

boundaryField
{
    //- Set patchGroups for constraint patches
    #includeEtc "caseDicts/setConstraintTypes"

    entrada_ext_dominio
    {
        type            fixedValue;
        value           uniform (5 0 0);
    }

    salida_ext_dominio
    {
        type            inletOutlet;
        inletValue      uniform (0 0 0);
        value           uniform (0 0 0);
    }

    cilindro_ext_dominio
    {
        type            fixedValue;
        value           uniform (0 0 0);
    }

    rotor
    {
        type            movingWallVelocity;
        value           uniform (0 0 0);
    }

    torre
    {
        type            fixedValue;
        value           uniform (0 0 0);
    }
    
    cyclicAMI
    {
        type            cyclicAMI;
        value           $internalField;
    }
}

// ************************************************************************* //
