/*--------------------------------*- C++ -*----------------------------------*\
| =========                 |                                                 |
| \\      /  F ield         | OpenFOAM: The Open Source CFD Toolbox           |
|  \\    /   O peration     | Version:  3.0.x                                 |
|   \\  /    A nd           | Web:      www.OpenFOAM.org                      |
|    \\/     M anipulation  |                                                 |
|*---------------------------------------------------------------------------*|
|* OpenFOAM for Windows 16.06 (v1)                                           *|
|* Built by CFD Support, www.cfdsupport.com (based on Symscape).             *|
\*---------------------------------------------------------------------------*/
FoamFile
{
    version     2.0;
    format      ascii;
    class       featureEdgeMesh;
    location    "constant/triSurface";
    object      rotor.eMesh;
}
// * * * * * * * * * * * * * * * * * * * * * * * * * * * * * * * * * * * * * //


// points:

1712
(
(2.666667 -0.74952531 -3.9291489)
(2.666667 -3.9684589 -0.50133288)
(2.666667 -3.236068 2.351141)
(2.666667 3.5052271 -1.9270149)
(2.666667 4 0)
(2.666667 0.25116211 3.9921069)
(2.666667 2.915875 2.738188)
(-1.0172319 -2.1580529 -2.492208)
(-0.81331682 -2.0338521 -2.6932549)
(0.89883429 3.5830159 1.388068)
(-3.4330649 0.59160978 -1.831444)
(-4.1300411 1.136389 -0.70362258)
(-4.1300411 1.246331 -0.48283109)
(-4.9106088 -0.44780961 -0.27727199)
(-4.1319242 1.294566 -0.32559651)
(-2.5038991 1.951124 -1.656625)
(-2.312865 2.6720619 0)
(-1.867862 2.3857839 -1.671023)
(-1.300131 3.179589 0)
(-0.81331682 3.147032 -1.219167)
(0.89883429 1.712746 -3.439657)
(2.113148 3.8594699 -0.99094361)
(-5.0572319 0.02598506 -0.2804234)
(-3.3065741 1.855262 0.79933792)
(-4.1319242 1.294566 0.32559651)
(-4.1300411 1.136389 0.70362258)
(-4.1300411 1.246331 0.48283109)
(-5.0572319 -0.2394422 0.14825641)
(-5.0572319 -0.2768296 -0.051748421)
(-5.0944548 0.01315425 -0.141957)
(-2.755986 -1.2380511 2.0584309)
(-2.845824 -0.81743437 2.1961701)
(-0.98633021 -2.1852551 2.484638)
(-3.319134 1.836478 -0.81890792)
(-5.0785332 0.21623769 0)
(-5.0114632 0.3791087 0)
(-4.920023 0.5147534 0)
(0.4694666 3.7556419 0)
(-5.0944548 0.063546747 0.1276191)
(-5.0572319 0.125531 0.2521002)
(-4.4010768 0.87857687 0.62193167)
(-4.9106088 0.38923621 0.35483569)
(-5.0572319 0.02598506 0.2804234)
(-5.0944548 0.01315425 0.141957)
(-5.0572319 -0.077070281 0.2708739)
(-3.4404559 0.57003111 1.83233)
(-3.4611211 0.47266391 1.843387)
(-3.9710691 -0.1215437 1.472316)
(-1.889456 2.361026 1.686939)
(-3.4611211 0.1258944 1.898852)
(-3.4587021 0.028668949 1.9046741)
(-4.9106088 -0.31740779 0.42031589)
(-3.4330649 -0.42010179 1.8782181)
(-2.8987911 -0.38472369 2.27582)
(-3.3828371 -1.1688319 1.576986)
(-3.7105989 -1.5459009 0.71122748)
(-3.042176 -1.879168 1.163532)
(-3.042176 -2.0609701 0.79842401)
(-3.7105989 -1.6984349 -0.1047559)
(-3.042176 -2.1725881 0.4061271)
(-3.042176 -2.2102211 1.252209e-015)
(-3.042176 -2.1725881 -0.4061271)
(-3.042176 -2.0609701 -0.79842401)
(-3.042176 -1.879168 -1.163532)
(-3.3957241 -1.146817 -1.581004)
(-5.0944548 0.063546747 -0.1276191)
(-3.3957241 -0.8367818 -1.764811)
(-3.97261 -0.1104999 -1.471838)
(-3.4404559 -0.39853331 -1.87711)
(-3.4611211 0.049846519 -1.9023679)
(-3.4587021 0.1471945 -1.899194)
(-2.905638 -0.3506234 -2.2766759)
(-3.4587021 0.49366421 -1.83981)
(-2.91837 0.087715521 -2.293278)
(0.2418628 0.91044968 -17.66011)
(0.2187696 0.85496932 -20.67219)
(0.52768749 0.64490199 -17.66011)
(0.48192891 0.58884329 -20.67219)
(0.83340448 0.2456764 -17.66011)
(-1.686148 0.68526781 -6.3062658)
(-1.64531 0.77531552 -6.3062658)
(-1.605443 0.8533603 -6.3062658)
(-1.58014 0.8990165 -6.3062658)
(-1.560896 0.93204981 -6.3062658)
(0.26078629 -2.2342241 -7.6323419)
(-0.090233833 -2.2243979 -7.6323419)
(-0.37369159 1.85298 -6.3062658)
(1.0742559 -0.62628138 -59.827881)
(0.1028761 1.930694 -6.3062658)
(-1.07768 1.197363 -20.67219)
(0.5881477 1.8914419 -6.3062658)
(0.99416327 1.761279 -6.3062658)
(-1.638013 -0.86631942 -8.9465199)
(1.171528 1.6716501 -6.3062658)
(-0.4267379 0.1982588 -61.366562)
(1.345042 1.5603859 -6.3062658)
(-0.2282472 0.1269822 -62.900002)
(1.6181279 1.323525 -6.3062658)
(1.798722 1.105269 -6.3062658)
(-0.22437461 0.1340324 -62.900002)
(0.13737421 -1.015993 -17.66011)
(-0.46621189 0.29512709 -61.366562)
(-0.34319901 0.25626719 -61.366562)
(-0.1468644 -0.43153629 -38.780861)
(0.83377057 -0.48371789 -61.366562)
(0.7534166 -0.4246417 -61.366562)
(1.687364 -1.315204 -6.3062658)
(1.0888751 1.833048 -7.6323419)
(2.144129 -0.89693677 -8.9465199)
(1.27563 1.74103 -7.6323419)
(1.4868571 -1.541819 -6.3062658)
(1.1896909 -1.779973 -6.3062658)
(2.1005061 0.88217783 -7.6323419)
(0.84967101 -1.958357 -6.3062658)
(0.50408071 -2.0632081 -6.3062658)
(0.20937949 -2.1008329 -6.3062658)
(-0.12619279 -2.089092 -6.3062658)
(1.615334 1.668806 8.9465199)
(1.594566 1.628829 7.6323419)
(1.285113 1.88506 7.6323419)
(-0.485017 2.1375909 7.6323419)
(0.93020499 2.0776801 7.6323419)
(-1.686148 -0.68526781 6.3062658)
(-1.64531 -0.77531552 6.3062658)
(-1.605443 -0.8533603 6.3062658)
(0.56899673 2.1919279 7.6323419)
(-1.58014 -0.8990165 6.3062658)
(-1.560896 -0.93204981 6.3062658)
(0.26078629 2.2342241 7.6323419)
(0.3082951 2.0887811 8.9465199)
(-0.090233833 2.2243979 7.6323419)
(-0.8908661 0.1783314 20.67219)
(-0.37369159 -1.85298 6.3062658)
(-1.218429 -0.2494116 20.67219)
(0.1028761 -1.930694 6.3062658)
(1.0742559 0.62628138 59.827881)
(-1.7122231 -0.6748873 7.6323419)
(-1.669903 -0.76910877 7.6323419)
(-1.6285599 -0.85079908 7.6323419)
(-1.582402 -0.9332512 7.6323419)
(0.5881477 -1.8914419 6.3062658)
(-1.464844 -1.112282 7.6323419)
(0.99416327 -1.761279 6.3062658)
(-1.172822 -1.439642 7.6323419)
(1.171528 -1.6716501 6.3062658)
(-0.4267379 -0.1982588 61.366562)
(1.345042 -1.5603859 6.3062658)
(-0.79930282 -1.714834 7.6323419)
(1.6181279 -1.323525 6.3062658)
(-0.2282472 -0.1269822 62.900002)
(1.798722 -1.105269 6.3062658)
(-0.34721339 -1.911912 7.6323419)
(-0.1682225 0.84603882 17.66011)
(-0.22437461 -0.1340324 62.900002)
(-0.46621189 -0.29512709 61.366562)
(-0.46724051 0.65140259 17.66011)
(-0.34319901 -0.25626719 61.366562)
(0.1521077 -1.999867 7.6323419)
(-0.9489128 0.2324632 17.66011)
(-1.131579 0.009842162 17.66011)
(0.66175783 -1.964813 7.6323419)
(0.83377057 0.48371789 61.366562)
(1.0888751 -1.833048 7.6323419)
(0.7534166 0.4246417 61.366562)
(2.144129 0.89693677 8.9465199)
(-1.408946 -0.59816778 17.66011)
(1.27563 -1.74103 7.6323419)
(-1.4221359 -0.76498121 17.66011)
(1.458426 -1.6262389 7.6323419)
(1.4868571 1.541819 6.3062658)
(1.74619 -1.3807321 7.6323419)
(1.936358 -1.153711 7.6323419)
(1.1896909 1.779973 6.3062658)
(2.1005061 -0.88217783 7.6323419)
(0.84967101 1.958357 6.3062658)
(0.6572842 -1.780524 8.9465199)
(0.50408071 2.0632081 6.3062658)
(0.20937949 2.1008329 6.3062658)
(-0.12619279 2.089092 6.3062658)
(1.296757 -0.8216148 -20.67219)
(1.936834 -1.775826 -17.66011)
(1.766571 -1.430083 -26.70825)
(1.772413 -1.0318969 -10.6277)
(1.704705 -1.713482 -12.31538)
(1.936834 1.775826 17.66011)
(1.766571 1.430083 26.70825)
(1.772413 1.0318969 10.6277)
(1.704705 1.713482 12.31538)
(2.666667 -1.703117 -3.619308)
(2.666667 -3.236068 -2.351141)
(2.666667 -2.549696 -3.0820529)
(2.666667 0.25116211 -3.9921069)
(2.666667 -3.9684589 0.50133288)
(2.666667 -3.719106 -1.4724981)
(2.666667 1.236068 -3.8042259)
(2.666667 -3.719106 1.4724981)
(2.666667 2.915875 -2.738188)
(2.666667 2.143307 -3.3773119)
(2.666667 -2.549696 3.0820529)
(2.666667 3.8743329 -0.9947595)
(2.666667 -0.74952531 3.9291489)
(2.666667 -1.703117 3.619308)
(2.666667 3.8743329 0.9947595)
(2.666667 1.236068 3.8042259)
(2.666667 3.5052271 1.9270149)
(2.666667 2.143307 3.3773119)
(-0.3756251 -2.4319201 -2.5531509)
(-0.81331682 -2.869426 -1.776673)
(-0.56489879 -1.678057 -3.0298109)
(0.89883429 2.8396349 2.58867)
(0.068665512 1.77156 3.1988051)
(0.33162889 1.744817 3.2894621)
(0.64171731 1.662992 3.4088261)
(-0.22978181 -1.7561719 -3.109715)
(0.068665512 -1.77156 -3.1988051)
(-0.81331682 3.147032 1.219167)
(-3.376245 1.315119 -1.4639421)
(-2.8987911 0.52409559 -2.2478199)
(-3.9710691 0.30155289 -1.446221)
(-4.4010768 0.87857687 -0.62193167)
(-0.81331682 2.4941061 2.2736781)
(-4.5327902 0.87598628 -0.3393589)
(-4.9106088 -0.5177322 -0.096780919)
(-5.0572319 -0.2394422 -0.14825641)
(0.044466481 -2.7330191 -2.419414)
(-4.1356888 1.331475 0)
(-3.2617359 2.0532629 0)
(0.4817521 -2.592195 -2.721415)
(0.89883429 1.712746 3.439657)
(0.94967479 1.520329 3.5387211)
(1.2224931 1.3277251 3.6618919)
(0.89883429 -2.315618 -3.0663741)
(0.89883429 -3.266952 -2.0228109)
(0.33162889 -1.744817 -3.2894621)
(-4.9106088 -0.31740779 -0.42031589)
(-2.2047019 1.685123 -2.1519949)
(-1.703105 0.48567709 -2.9550681)
(-1.411316 1.069983 -2.942219)
(-1.589224 0.78172559 -2.9472549)
(-5.0572319 -0.16971689 -0.2247414)
(-2.44977 2.054384 -1.580519)
(-1.775452 1.965199 -2.212431)
(-1.158098 1.33978 -2.949645)
(-0.81331682 2.4941061 -2.2736781)
(-2.4042771 2.3726299 -1.108813)
(-0.81331682 -2.0338521 2.6932549)
(-0.4523975 -1.711478 3.0543389)
(-0.83708179 -1.560324 2.982594)
(-4.9106088 -0.1441384 -0.50659382)
(-5.0572319 -0.077070281 -0.2708739)
(-1.954868 2.273108 -1.748791)
(-1.5223711 2.4452119 -1.873304)
(-1.577664 2.8483241 -1.103447)
(-1.325882 2.9544621 -1.144565)
(1.105715 2.0976241 -3.2610271)
(1.47584 1.000016 -3.799453)
(0.39840961 1.724075 -3.3181939)
(0.89883429 2.8396349 -2.58867)
(1.313273 1.198191 -3.719779)
(1.069389 1.414494 -3.6039579)
(-4.9106088 0.048597772 -0.5244534)
(1.56129 3.938729 0)
(-3.3512371 1.364637 1.443946)
(-2.463654 2.0315149 1.5964381)
(-2.413564 2.3600349 1.122699)
(-5.0944548 -0.141957 -0.01315425)
(-5.1075721 9.7971742e-017 0)
(-4.9106088 -0.5177322 0.096780919)
(-5.0944548 -0.01315425 0.141957)
(-5.0572319 -0.2768296 0.051748421)
(-2.0602369 -1.413357 2.4313149)
(-2.5181589 -1.818977 1.788437)
(-1.1142941 -2.0549719 2.5277469)
(-1.411316 -1.069983 2.942219)
(-1.703105 -0.48567709 2.9550681)
(-1.589224 -0.78172559 2.9472549)
(0.89883429 -2.315618 3.0663741)
(1.313273 -1.198191 3.719779)
(1.069389 -1.414494 3.6039579)
(0.75777328 -1.6001199 3.464442)
(1.503799 3.459691 1.868812)
(0.39840961 -1.724075 3.3181939)
(2.113148 3.8594699 0.99094361)
(-1.733674 -2.4625249 1.6778409)
(-2.3328209 -2.5353739 0.80656052)
(-0.81331682 -3.3174689 0.6201424)
(-0.81331682 -2.869426 1.776673)
(-0.38756481 -3.1643131 -1.546936)
(-0.81331682 -3.3174689 -0.6201424)
(0.036403731 -3.4079039 -1.301203)
(0.46952191 -3.374047 -1.649469)
(0.89883429 -3.777066 -0.70605588)
(0.89883429 -3.266952 2.0228109)
(1.503799 3.459691 -1.868812)
(0.89883429 3.5830159 -1.388068)
(2.0842631 2.913548 2.7158091)
(-4.9106088 0.38923621 -0.35483569)
(-4.9106088 0.23477051 -0.47148269)
(-5.0572319 0.125531 -0.2521002)
(-5.0572319 0.20812321 -0.18972941)
(-5.0572319 0.26260731 -0.1017346)
(-0.3915436 -3.5066831 -0.31634331)
(0.033716548 -3.64713 0.0059126508)
(0.465446 -3.7395501 -0.33735061)
(0.89883429 -3.777066 0.70605588)
(1.746405 2.0961189 3.3568799)
(1.409618 1.143128 3.750335)
(1.5747271 0.92138821 3.83097)
(-4.9106088 0.49113339 -0.1902661)
(-0.39286971 -3.3853221 0.96617419)
(-0.91052878 -1.5185961 -2.9728689)
(0.032820869 -3.3999109 1.3192461)
(0.43157959 -2.5890901 2.7086639)
(0.4640874 -3.6102719 1.030375)
(0.64171731 -1.662992 -3.4088261)
(0.94967479 -1.520329 -3.5387211)
(1.2224931 -1.3277251 -3.6618919)
(-0.0305482 1.769443 -3.168807)
(-0.4523975 1.711478 -3.0543389)
(-0.83708179 1.560324 -2.982594)
(0.75777328 1.6001199 -3.464442)
(1.722639 0.59815907 3.9098549)
(-4.5327902 0.87598628 0.3393589)
(-4.9106088 0.49113339 0.1902661)
(-5.0572319 0.20812321 0.18972941)
(1.802032 0.23582789 3.9555261)
(1.802464 -0.13960899 3.9601271)
(1.732257 -0.48118171 3.9268811)
(1.617943 -0.76429451 3.8701191)
(-4.9106088 0.23477051 0.47148269)
(1.47584 -1.000016 3.799453)
(-5.0944548 0.039014801 0.13712279)
(-4.9106088 0.048597772 0.5244534)
(-5.0572319 -0.16971689 0.2247414)
(-4.9106088 -0.1441384 0.50659382)
(-3.97261 0.29053411 1.447103)
(-3.3957241 0.670376 1.834491)
(-1.577664 2.8483241 1.103447)
(-1.9691989 2.249126 1.767444)
(-1.325882 2.9544621 1.144565)
(-2.8599851 0.64644468 2.2426779)
(-1.766644 0.1185317 2.96119)
(-1.719849 0.42033771 2.95683)
(-1.618459 0.7177003 2.949286)
(-1.537039 2.428082 1.8844121)
(-2.905638 0.4901126 2.2507739)
(-3.9547501 -0.5286386 1.394717)
(-1.799571 1.92817 2.2289319)
(-1.455536 1.008114 2.9429791)
(-1.219395 1.283895 2.9464829)
(-0.91052878 1.5185961 2.9728689)
(-3.4587021 -0.32180211 1.877511)
(-2.91837 0.053627118 2.294328)
(-1.761169 -0.1846738 2.9605131)
(-3.922893 -0.9082762 1.21782)
(-4.9106088 -0.44780961 0.27727199)
(-3.4330649 -0.75807053 1.769045)
(-3.3828371 -0.85916018 1.764907)
(1.409618 -1.143128 -3.750335)
(-3.304508 -1.2752891 1.568687)
(1.5747271 -0.92138821 -3.83097)
(1.722639 -0.59815907 -3.9098549)
(-3.7105989 -1.621586 -0.5158636)
(1.802032 -0.23582789 -3.9555261)
(-1.158098 -1.33978 2.949645)
(1.802464 0.13960899 -3.9601271)
(1.732257 0.48118171 -3.9268811)
(1.617943 0.76429451 -3.8701191)
(-2.3328209 -2.655529 0.16378739)
(-3.931052 -0.89571267 -1.218309)
(-5.0944548 0.039014801 -0.13712279)
(-3.959451 -0.5171203 -1.394665)
(-3.323962 -1.251477 -1.569267)
(-2.3328209 -2.4170401 -1.112015)
(-0.0305482 -1.769443 3.168807)
(-3.4404559 -0.73666561 -1.7719181)
(-2.531971 -1.801803 -1.793866)
(-2.7785971 -1.203572 -2.0618401)
(-1.618459 -0.7177003 -2.949286)
(-1.455536 -1.008114 -2.9429791)
(-3.4611211 -0.30056131 -1.879135)
(-2.8599851 -0.7832799 -2.1986289)
(-1.719849 -0.42033771 -2.95683)
(-1.766644 -0.1185317 -2.96119)
(-0.56489879 1.678057 3.0298109)
(-0.22978181 1.7561719 3.109715)
(-1.761169 0.1846738 -2.9605131)
(-1.136727 -2.0254209 -2.5397401)
(-1.219395 -1.283895 -2.9464829)
(1.829284 -1.484665 -8.9465199)
(1.981596 -1.09518 -7.6323419)
(1.802651 -1.385399 -7.6323419)
(-0.085207693 -0.064865738 -59.827881)
(-0.09705437 -0.072645277 -56.905338)
(-0.2128953 -9.007661e-005 -56.905338)
(-0.42348549 1.195774 -20.67219)
(-0.43257919 1.2525311 -17.66011)
(-0.083215334 1.117744 -17.66011)
(0.9352842 0.80864561 -10.6277)
(0.82094407 0.93611491 -10.6277)
(1.220751 1.515834 -8.9465199)
(-0.75969028 1.246287 -20.67219)
(1.323558 1.196982 -3.9098549)
(1.083795 1.413903 -3.9098549)
(-1.320272 1.273481 -12.31538)
(-1.365389 1.2193 -12.31538)
(-1.484991 1.072978 -10.6277)
(-1.440558 1.137684 -10.6277)
(0.02865022 -0.1306739 -59.827881)
(1.326667 1.196818 -3.9601271)
(1.0866719 1.414067 -3.9601271)
(-0.088356957 1.0625089 -20.67219)
(-0.94344151 0.5919776 -44.815102)
(-1.0557131 0.61167598 -38.780861)
(-1.056879 0.66122639 -38.780861)
(0.35853779 -0.094571963 -56.905338)
(0.4157441 -0.1171125 -50.85603)
(0.53923339 -0.2073056 -50.85603)
(-0.92315781 0.55525059 -44.815102)
(-1.29036 1.302906 -12.31538)
(0.29655361 -0.05308263 -56.905338)
(-1.411834 1.1743439 -10.6277)
(-1.838657 0.1016428 -6.3062658)
(-1.8472199 -0.2403871 -6.3062658)
(-1.771318 -0.1229817 -3.9601271)
(-1.7667 0.1845533 -3.9601271)
(0.60773969 -1.139917 -14.62469)
(0.82067871 -1.253509 -14.62469)
(0.68517762 -1.20752 -12.31538)
(0.52413529 -0.3451288 -61.366562)
(0.67534548 -0.44649169 -59.827881)
(0.57037181 -0.39901659 -59.827881)
(0.3788861 -0.21875 -62.900002)
(0.61065078 -0.38371381 -61.366562)
(1.615334 -1.668806 -8.9465199)
(1.594566 -1.628829 -7.6323419)
(0.4707458 -1.096048 -12.31538)
(0.4663558 -0.1692449 -56.905338)
(0.63505107 -0.27953491 -50.85603)
(-0.93875581 0.61568999 -44.815102)
(-1.050626 0.69019008 -38.780861)
(0.7435149 0.3782683 -17.66011)
(1.4823999 0.99885011 -3.9098549)
(-1.8185509 0.24105559 -6.3062658)
(0.67836648 0.32586861 -20.67219)
(-1.749347 0.31011111 -3.9601271)
(-1.266891 1.32292 -12.31538)
(-1.389565 1.20013 -10.6277)
(-0.92256171 0.62416631 -44.815102)
(-1.041791 0.71022898 -38.780861)
(0.76053292 0.19685739 -20.67219)
(1.044489 0.66712183 -10.6277)
(1.386861 1.392377 -8.9465199)
(0.92060739 0.1038113 -17.66011)
(-0.18779971 -0.001599279 -59.827881)
(-0.3205153 0.071031854 -56.905338)
(-0.89197528 -1.951509 -7.6323419)
(-0.50368702 -2.0044129 -6.3062658)
(-0.89311773 -1.825681 -6.3062658)
(0.84072179 0.05984496 -20.67219)
(1.061862 -0.153155 -17.66011)
(0.44263691 -0.3085081 -61.366562)
(0.48406571 -0.3594684 -59.827881)
(-1.128197 1.4126379 -12.31538)
(0.97239453 -0.1859206 -20.67219)
(1.166059 -0.3586666 -17.66011)
(-0.485017 -2.1375909 -7.6323419)
(-0.87363303 0.61876428 -44.815102)
(-0.99766749 0.74684823 -38.780861)
(1.4856679 0.99840897 -3.9601271)
(-1.258618 1.326237 -10.6277)
(0.55006891 -0.2291248 -56.905338)
(0.73716033 -0.3581214 -50.85603)
(1.071385 -0.3807615 -20.67219)
(1.274447 -0.58141589 -17.66011)
(1.176605 -0.59041011 -20.67219)
(-0.28295699 0.060594611 -59.827881)
(-1.7723891 0.4408744 -6.3062658)
(1.395691 -0.82836282 -17.66011)
(-1.7080849 0.49002469 -3.9601271)
(0.36843821 -1.0121 -14.62469)
(0.22966079 -0.9710629 -12.31538)
(1.542551 -1.106892 -17.66011)
(1.445316 -1.081066 -20.67219)
(1.722442 -1.394279 -17.66011)
(-0.82540059 0.6060763 -44.815102)
(-0.94123948 0.75713742 -38.780861)
(1.62051 0.76366723 -3.9098549)
(1.305629 -1.8594919 -8.9465199)
(1.285113 -1.88506 -7.6323419)
(1.214627 0.39956659 -10.6277)
(1.6477979 1.137494 -8.9465199)
(-0.42327821 0.14288209 -56.905338)
(-0.63992631 0.52657032 -44.815102)
(-0.7114203 0.72158152 -38.780861)
(1.623925 0.76291299 -3.9601271)
(-0.79627061 1.480854 -12.31538)
(0.37574759 -0.27791011 -61.366562)
(0.3867085 -0.3138884 -59.827881)
(1.795338 -1.5012259 -26.70825)
(1.993287 -1.58533 -26.70825)
(1.868814 -1.680436 -20.67219)
(-0.93910801 1.497353 -10.6277)
(1.630335 -1.347451 -20.67219)
(2.0929911 -1.978351 -14.62469)
(0.63930559 -0.29433009 -56.905338)
(0.85009837 -0.44610661 -50.85603)
(1.3313611 0.17674869 -10.6277)
(1.821286 0.90822399 -8.9465199)
(-1.6294611 0.70956528 -3.9601271)
(-0.4502368 0.4317618 -44.815102)
(-0.48198929 0.63612562 -38.780861)
(0.095270798 -0.86264008 -14.62469)
(-1.254485 -1.6739351 -7.6323419)
(-0.37397009 0.1233375 -59.827881)
(-1.2405519 -1.5602911 -6.3062658)
(-0.045615949 -0.82504117 -12.31538)
(-0.25328681 0.32305521 -44.815102)
(-0.2512041 0.51732522 -38.780861)
(1.6086 -1.418134 -26.70825)
(1.658635 -1.585849 -20.67219)
(1.392051 -1.467787 -20.67219)
(1.4424551 -0.071806528 -10.6277)
(-0.52292597 0.2174141 -56.905338)
(1.97367 0.63869381 -8.9465199)
(0.3003493 -0.2426151 -61.366562)
(0.2750119 -0.25981101 -59.827881)
(-1.591978 0.7901805 -3.9601271)
(1.372447 -1.311561 -26.70825)
(-0.054467209 0.20483141 -44.815102)
(-0.02668285 0.37312931 -38.780861)
(-0.4398846 1.415732 -12.31538)
(0.73796439 -0.3674145 -56.905338)
(0.97948807 -0.54711467 -50.85603)
(-0.57185489 1.559971 -10.6277)
(-0.46267059 0.1881177 -59.827881)
(-1.555457 0.8599906 -3.9601271)
(0.1425018 0.079633541 -44.815102)
(0.18665379 0.2083768 -38.780861)
(0.9570595 -1.997443 -8.9465199)
(1.133862 -1.201851 -26.70825)
(1.122048 -1.349213 -20.67219)
(-0.201601 -0.68843633 -14.62469)
(-0.344212 -0.65330708 -12.31538)
(0.93020499 -2.0776801 -7.6323419)
(0.3119801 -0.03490955 -44.815102)
(0.36306149 0.050819822 -38.780861)
(-0.56303799 0.2492204 -56.905338)
(0.90954733 -1.096295 -26.70825)
(0.8677817 -1.237022 -20.67219)
(0.2137716 -0.2008186 -61.366562)
(0.3899366 -0.0897718 -44.815102)
(-0.094890058 1.2413141 -12.31538)
(-0.1834137 1.520162 -10.6277)
(-0.17601641 0.074880503 -62.900002)
(0.15228049 -0.1974621 -59.827881)
(-1.532249 0.90074962 -3.9601271)
(1.734629 0.48044771 -3.9601271)
(0.44182989 -0.02632127 -38.780861)
(-1.514568 0.9301874 -3.9601271)
(0.47020569 -0.14767361 -44.815102)
(-0.49849299 0.2157038 -59.827881)
(0.52137083 -0.1086736 -38.780861)
(-0.49493149 -0.49546981 -14.62469)
(-0.63762051 -0.45998219 -12.31538)
(0.72549921 -1.007282 -26.70825)
(0.60979569 -0.2516022 -44.815102)
(-1.529741 -1.346429 -7.6323419)
(-1.505085 -1.247643 -6.3062658)
(0.65717793 -0.25719371 -38.780861)
(0.71812183 -0.3347685 -44.815102)
(0.76129001 -0.37584099 -38.780861)
(-0.6202901 0.29698911 -56.905338)
(-1.4474159 1.102638 -6.3062658)
(-1.410358 1.081744 -3.9601271)
(0.85086739 -0.4514178 -56.905338)
(1.120093 -0.65595692 -50.85603)
(0.659132 -1.142859 -20.67219)
(-0.75598872 -0.29498121 -14.62469)
(0.83352858 -0.42524111 -44.815102)
(0.51840693 -0.90352249 -26.70825)
(0.87229949 -0.50389433 -38.780861)
(-0.54956251 0.25724661 -59.827881)
(0.96094787 -0.52672988 -44.815102)
(0.99804872 -0.64383912 -38.780861)
(-0.89710951 -0.25706479 -12.31538)
(1.106469 -0.64366269 -44.815102)
(1.149618 -0.797252 -38.780861)
(0.4242985 -1.033268 -20.67219)
(0.60617548 -2.0713439 -8.9465199)
(0.56899673 -2.1919279 -7.6323419)
(0.2110358 0.98755682 -12.31538)
(0.1967189 1.388322 -10.6277)
(-0.69010073 0.36048949 -56.905338)
(0.1184294 -0.15279721 -61.366562)
(-1.717412 -1.0014189 -7.6323419)
(-1.686247 -0.91834158 -6.3062658)
(0.2818599 -0.77868921 -26.70825)
(0.3082951 -2.0887811 -8.9465199)
(-0.9776482 -0.089122862 -14.62469)
(-1.115147 -0.0470955 -12.31538)
(0.1563603 -0.90046692 -20.67219)
(1.274797 -0.81168169 -50.85603)
(1.394626 -0.86813629 -50.85603)
(1.434618 -0.95244282 -44.815102)
(-1.165675 1.412725 -6.3062658)
(-0.61105061 0.31323341 -59.827881)
(1.263806 -0.77054012 -44.815102)
(1.327597 -0.94847059 -38.780861)
(1.52068 -1.07776 -38.780861)
(1.708877 -1.195086 -38.780861)
(-1.151966 1.352995 -3.9601271)
(0.024053071 -0.63203782 -26.70825)
(-0.13440999 -0.74118829 -20.67219)
(0.4661831 0.67981881 -12.31538)
(-0.71275252 0.38865781 -56.905338)
(1.802386 -0.23601051 -3.9601271)
(0.5478639 1.176738 -10.6277)
(0.9733032 -0.54216188 -56.905338)
(1.1616859 -0.75704777 -50.85603)
(1.307974 -0.88635111 -44.815102)
(1.2604409 -0.7636112 -50.85603)
(-1.831816 -0.64877981 -7.6323419)
(-1.797528 -0.58154792 -6.3062658)
(-1.162845 0.1285408 -14.62469)
(-1.292742 0.176829 -12.31538)
(-0.63142562 0.33765081 -59.827881)
(-0.72856772 0.41589499 -56.905338)
(-0.2317367 -0.4703258 -26.70825)
(-0.4209947 -0.56145078 -20.67219)
(1.018518 -0.6876201 -50.85603)
(1.14766 -0.80244118 -44.815102)
(-0.03044231 -2.0597639 -8.9465199)
(0.64801937 0.38240349 -12.31538)
(-0.46031919 -0.30316681 -26.70825)
(-0.80657148 1.670823 -6.3062658)
(-0.82550961 1.572733 -3.9601271)
(-0.64579868 0.36141241 -59.827881)
(-1.309497 0.36450529 -14.62469)
(-1.424931 0.42094401 -12.31538)
(1.726519 -0.60057139 -3.9601271)
(-0.67525262 -0.37275821 -20.67219)
(1.860701 -1.044773 -6.3062658)
(0.87327218 -0.61749423 -50.85603)
(0.72024798 0.2376564 -12.31538)
(-0.65538239 -0.1318755 -26.70825)
(-0.72570282 0.43391231 -56.905338)
(-0.8908661 -0.1783314 -20.67219)
(-1.881896 -0.29196039 -7.6323419)
(-0.6435312 0.37740961 -59.827881)
(-0.71402889 0.44102171 -56.905338)
(0.78740662 0.084307611 -12.31538)
(-0.412117 -1.9619139 -8.9465199)
(0.98495549 -0.71777773 -44.815102)
(-0.8233878 0.046287041 -26.70825)
(0.73609608 -0.55129969 -50.85603)
(0.8312481 -0.63795209 -44.815102)
(-1.407571 0.62139469 -14.62469)
(-1.497723 0.68579471 -12.31538)
(-0.4360477 1.721464 -3.9601271)
(-0.63306183 0.3838096 -59.827881)
(-1.071811 0.02722105 -20.67219)
(-0.67731309 0.43950799 -56.905338)
(-1.871539 0.06533771 -7.6323419)
(-1.428803 0.73245388 -14.62469)
(-1.505182 0.79880393 -12.31538)
(-0.96948808 0.2342672 -26.70825)
(0.62315869 -0.49631289 -50.85603)
(0.70470291 -0.57171547 -44.815102)
(0.022248549 -0.1014276 -61.366562)
(1.420276 -1.15159 -3.9098549)
(-1.850198 0.2108801 -7.6323419)
(-1.218429 0.2494116 -20.67219)
(1.423949 -1.154452 -3.9601271)
(0.89182991 -0.1892072 -12.31538)
(-1.0951281 0.43458241 -26.70825)
(-0.60066289 0.38246611 -59.827881)
(-0.64057189 0.43213749 -56.905338)
(-1.43284 0.89608407 -14.62469)
(-1.487026 0.96178442 -12.31538)
(0.95244777 -1.522918 -3.6039579)
(-0.80801421 -1.775362 -8.9465199)
(0.49572319 -0.43302229 -50.85603)
(0.56193447 -0.49561349 -44.815102)
(-1.3247091 0.49116111 -20.67219)
(-0.56834918 0.3760311 -59.827881)
(-0.49801549 0.37951571 -56.905338)
(-1.139586 0.52130359 -26.70825)
(1.237223 -1.340433 -3.9098549)
(-1.801846 0.41950271 -7.6323419)
(1.857638 -1.837415 -14.62469)
(1.2406271 -1.343347 -3.9601271)
(1.0952049 -0.63233662 -56.905338)
(1.211677 -0.72013438 -56.905338)
(-1.352571 0.59632492 -20.67219)
(-1.19402 0.6524086 -26.70825)
(-1.370141 0.75331807 -20.67219)
(-0.066220418 -0.050666761 -61.366562)
(0.34971479 -0.3578856 -50.85603)
(0.39840001 -0.40554991 -44.815102)
(0.96857488 -0.40416309 -12.31538)
(-0.01084448 1.7763211 -3.9601271)
(0.64847851 -1.669668 -3.6039579)
(1.7551579 -1.6585521 -10.6277)
(2.020828 -1.26298 -8.9465199)
(1.962757 -1.937673 -12.31538)
(-1.339571 0.949821 -20.67219)
(-1.381165 1.095403 -14.62469)
(0.07041233 -1.773018 -3.2894621)
(-1.410862 1.154108 -12.31538)
(-0.44210401 0.3311381 -59.827881)
(0.1897445 -0.2711038 -50.85603)
(0.21926729 -0.3020196 -44.815102)
(-0.35183361 0.3148725 -56.905338)
(0.96823531 -1.53801 -3.9098549)
(-1.233686 0.82702887 -26.70825)
(-1.305742 1.018384 -20.67219)
(-1.7122231 0.6748873 -7.6323419)
(-1.230266 0.89484262 -26.70825)
(-1.265637 1.07298 -20.67219)
(0.97127157 -1.540966 -3.9601271)
(-1.340404 1.1633691 -14.62469)
(-0.14570481 -0.00164891 -61.366562)
(-1.165149 -1.507231 -8.9465199)
(0.340491 -1.753894 -3.6039579)
(0.02906272 -0.17808139 -50.85603)
(0.03926545 -0.19183619 -44.815102)
(-1.205444 0.94847488 -26.70825)
(-1.669903 0.76910877 -7.6323419)
(1.719153 -1.6899329 -17.66011)
(1.63685 -1.70665 -14.62469)
(1.359476 -1.547884 -14.62469)
(-0.31279999 0.2746017 -59.827881)
(-0.2269178 -1.758325 -3.2894621)
(-1.180674 0.97414112 -26.70825)
(-1.2371 1.101342 -20.67219)
(-1.6285599 0.85079908 -7.6323419)
(-0.1999135 0.23937839 -56.905338)
(0.66227061 -1.684477 -3.9098549)
(-0.1187576 -0.086628981 -50.85603)
(-0.12655079 -0.084396832 -44.815102)
(-1.296379 1.218298 -14.62469)
(-0.2193125 0.046629179 -61.366562)
(-1.159055 0.98928261 -26.70825)
(-1.2144949 1.120254 -20.67219)
(0.66491258 -1.687443 -3.9601271)
(-1.602334 0.89862448 -7.6323419)
(-1.266024 1.2472399 -14.62469)
(-0.25198469 0.00096101209 -50.85603)
(-0.27629831 0.01774982 -44.815102)
(0.078233227 -1.781548 -3.6039579)
(-1.024016 1.028773 -26.70825)
(1.5360169 -1.6613801 -10.6277)
(1.0517401 -0.63364059 -12.31538)
(-0.17819761 0.2094059 -59.827881)
(-0.046500541 0.156331 -56.905338)
(-0.5615477 -1.680207 -3.2894621)
(-0.73665988 1.012261 -26.70825)
(0.3523556 -1.7683229 -3.9098549)
(-1.582402 0.9332512 -7.6323419)
(-1.2420731 1.266654 -14.62469)
(-0.2202674 -1.7662489 -3.6039579)
(-0.44493791 0.93174452 -26.70825)
(-0.2898685 0.095189951 -61.366562)
(-0.37549081 0.086853482 -50.85603)
(-0.41541299 0.1173414 -44.815102)
(-1.0978529 1.346735 -14.62469)
(0.4194392 1.727831 -3.9601271)
(-1.442342 -1.194883 -8.9465199)
(0.35461161 -1.771264 -3.9601271)
(-0.15324029 0.7976023 -26.70825)
(0.088493712 -1.795573 -3.9098549)
(0.1185774 0.60942262 -26.70825)
(-0.49318331 0.17359389 -50.85603)
(-0.54832029 0.2174004 -44.815102)
(-0.35899821 0.14502721 -61.366562)
(-0.90729702 -1.520314 -3.2894621)
(-1.464844 1.112282 -7.6323419)
(1.4410191 -1.580839 -17.66011)
(0.35794169 0.3771368 -26.70825)
(0.09042646 -1.798465 -3.9601271)
(-0.60706639 0.2634632 -50.85603)
(-0.67732352 0.3205753 -44.815102)
(1.242654 -1.6521519 -10.6277)
(-0.76044679 1.387239 -14.62469)
(0.7778796 1.601463 -3.9601271)
(0.54474348 0.1521948 -26.70825)
(-0.5562346 -1.687428 -3.6039579)
(-0.042155288 0.13777751 -59.827881)
(0.1055176 0.067700669 -56.905338)
(-0.2118201 -1.7797019 -3.9098549)
(0.62614107 0.042814951 -26.70825)
(-0.65280819 0.3017765 -50.85603)
(-0.72929358 0.3644101 -44.815102)
(0.70762819 -0.073099233 -26.70825)
(-0.21025351 -1.782506 -3.9601271)
(1.157498 -1.468591 -17.66011)
(1.08108 -1.3939151 -14.62469)
(0.84563112 -0.28047669 -26.70825)
(-1.216742 -1.285111 -3.2894621)
(-0.3869825 0.16621061 -61.366562)
(-0.71793252 0.35928029 -50.85603)
(-0.80347711 0.43006611 -44.815102)
(-1.172822 1.439642 -7.6323419)
(0.95093399 -0.44526079 -26.70825)
(0.93407822 1.5173 -3.9601271)
(-0.89395118 0.5170486 -44.815102)
(-0.2147712 0.1098807 -62.900002)
(1.063746 -0.62222773 -26.70825)
(-0.9034344 -1.5267119 -3.6039579)
(0.88927048 -1.359682 -17.66011)
(1.192245 -0.81695253 -26.70825)
(-0.79678941 0.43573549 -50.85603)
(0.93164599 -1.62433 -10.6277)
(1.3507251 -1.0323 -26.70825)
(-0.54984528 -1.7000591 -3.9098549)
(-1.764321 -0.528736 -8.9465199)
(0.092618398 0.06068296 -59.827881)
(0.236361 -0.01386431 -56.905338)
(1.545128 -1.246706 -26.70825)
(-0.40683949 1.30733 -14.62469)
(-0.5486933 -1.7027169 -3.9601271)
(-0.473654 0.2422743 -61.366562)
(-0.82213593 0.46928149 -50.85603)
(1.543857 -1.140434 -38.780861)
(-1.453668 -1.008906 -3.2894621)
(-1.214303 -1.290576 -3.6039579)
(0.66867352 -1.266036 -17.66011)
(-0.83948213 0.50153071 -50.85603)
(-0.79930282 1.714834 -7.6323419)
(1.388146 -1.0854321 -38.780861)
(-0.48971981 0.26083869 -61.366562)
(-0.89923197 -1.538195 -3.9098549)
(-0.2280691 0.1260096 -62.900002)
(0.62996918 -1.577289 -10.6277)
(-0.83569461 0.52250439 -50.85603)
(-0.063583843 1.13135 -14.62469)
(-0.50131822 0.2789447 -61.366562)
(-0.89851707 -1.5406311 -3.9601271)
(-0.2281803 0.12837429 -62.900002)
(-0.82206053 0.5307225 -50.85603)
(-1.827763 -0.18403409 -8.9465199)
(1.191267 -1.014595 -38.780861)
(-1.617381 -0.71809089 -3.2894621)
(-0.77950573 0.52890038 -50.85603)
(0.42031041 -1.15447 -17.66011)
(-0.49954349 0.29148629 -61.366562)
(-0.2276621 0.1301157 -62.900002)
(-1.452486 -1.013386 -3.6039579)
(-0.2267216 0.1318178 -62.900002)
(-0.2254995 0.1332209 -62.900002)
(0.37840301 -1.521614 -10.6277)
(0.2426752 0.88014299 -14.62469)
(-0.73684019 0.51996303 -50.85603)
(-1.212167 -1.300619 -3.9098549)
(-0.4912951 0.2966336 -61.366562)
(-0.22329549 0.1344741 -62.900002)
(-0.57143492 0.4566175 -50.85603)
(-0.34721339 1.911912 -7.6323419)
(0.99249178 -0.9410919 -38.780861)
(-1.719466 -0.42027 -3.2894621)
(-0.4021982 0.37835181 -50.85603)
(-1.828913 0.1645537 -8.9465199)
(0.80557442 -0.87005299 -38.780861)
(-1.2118599 -1.3027641 -3.9601271)
(-0.2266293 0.28703851 -50.85603)
(0.20859151 -0.01066117 -59.827881)