/*--------------------------------*- C++ -*----------------------------------*\
| =========                 |                                                 |
| \\      /  F ield         | OpenFOAM: The Open Source CFD Toolbox           |
|  \\    /   O peration     | Version:  3.0.x                                 |
|   \\  /    A nd           | Web:      www.OpenFOAM.org                      |
|    \\/     M anipulation  |                                                 |
\*---------------------------------------------------------------------------*/
FoamFile
{
    version     2.0;
    format      ascii;
    class       volScalarField;
    location    "0";
    object      k;
}
// * * * * * * * * * * * * * * * * * * * * * * * * * * * * * * * * * * * * * //

dimensions      [0 2 -2 0 0 0 0];

internalField   uniform 0.06;

boundaryField
{
    entrada_ext_dominio
    {
        type            fixedValue;
        value           $internalField;
    }

    salida_ext_dominio
    {
        type            inletOutlet;
        inletValue      $internalField;
        value           $internalField;
    }
    
    wall
    {
        type            kqRWallFunction;
        value           $internalField;
    }

    cyclicAMI
    {
        type            cyclicAMI;
        value           $internalField;
    }
}


// ************************************************************************* //
